*Heading
** Job name: Job-1 Model name: Model-1
** Generated by: Abaqus/CAE 2022
*Preprint, echo=NO, model=NO, history=NO, contact=NO
**
** PARTS
**
*Part, name=Part-1
*End Part
**  
**
** ASSEMBLY
**
*Assembly, name=Assembly
**  
*Instance, name=Part-1-1, part=Part-1
*Node
      1,  0.200000001,  0.200000001,           2.
      2,  0.200000001,           0.,           2.
      3,  0.200000001,  0.200000001,   1.96000004
      4,  0.200000001,           0.,   1.96000004
      5,  0.200000001,  0.200000001,   1.91999996
      6,  0.200000001,           0.,   1.91999996
      7,  0.200000001,  0.200000001,         1.88
      8,  0.200000001,           0.,         1.88
      9,  0.200000001,  0.200000001,   1.84000003
     10,  0.200000001,           0.,   1.84000003
     11,  0.200000001,  0.200000001,   1.79999995
     12,  0.200000001,           0.,   1.79999995
     13,  0.200000001,  0.200000001,   1.75999999
     14,  0.200000001,           0.,   1.75999999
     15,  0.200000001,  0.200000001,   1.72000003
     16,  0.200000001,           0.,   1.72000003
     17,  0.200000001,  0.200000001,   1.67999995
     18,  0.200000001,           0.,   1.67999995
     19,  0.200000001,  0.200000001,   1.63999999
     20,  0.200000001,           0.,   1.63999999
** ... 184 like lines cut
*Element, type=C3D8T
 1, 103, 104, 106, 105,   1,   2,   4,   3
 2, 105, 106, 108, 107,   3,   4,   6,   5
 3, 107, 108, 110, 109,   5,   6,   8,   7
 4, 109, 110, 112, 111,   7,   8,  10,   9
 5, 111, 112, 114, 113,   9,  10,  12,  11
 6, 113, 114, 116, 115,  11,  12,  14,  13
 7, 115, 116, 118, 117,  13,  14,  16,  15
 8, 117, 118, 120, 119,  15,  16,  18,  17
 9, 119, 120, 122, 121,  17,  18,  20,  19
10, 121, 122, 124, 123,  19,  20,  22,  21
11, 123, 124, 126, 125,  21,  22,  24,  23
12, 125, 126, 128, 127,  23,  24,  26,  25
13, 127, 128, 130, 129,  25,  26,  28,  27
14, 129, 130, 132, 131,  27,  28,  30,  29
15, 131, 132, 134, 133,  29,  30,  32,  31
16, 133, 134, 136, 135,  31,  32,  34,  33
17, 135, 136, 138, 137,  33,  34,  36,  35
18, 137, 138, 140, 139,  35,  36,  38,  37
19, 139, 140, 142, 141,  37,  38,  40,  39
20, 141, 142, 144, 143,  39,  40,  42,  41
** ... 30 like lines cut
*Nset, nset=Set-1, generate
   1,  204,    1
*Elset, elset=Set-1, generate
  1,  50,   1
** Section: Section-1
*Solid Section, elset=Set-1, material=Void
,
*End Instance
**  
*Nset, nset=Flux_nodes, instance=Part-1-1
 101, 102, 203, 204
*Nset, nset=Set-X1, instance=Part-1-1
 101, 102, 203, 204
*Elset, elset=Set-X1, instance=Part-1-1
 50,
*Nset, nset=Set-X2, instance=Part-1-1
   1,   2, 103, 104
*Elset, elset=Set-X2, instance=Part-1-1
 1,
*Nset, nset=Volume, instance=Part-1-1, generate
   1,  204,    1
*Elset, elset=Volume, instance=Part-1-1, generate
  1,  50,   1
*End Assembly
** 
** MATERIALS
** 
*Material, name=Void
*Density
1.,
*Depvar
     10,
*User Material, constants=1, type=THERMAL
1.,
*User Material, constants=2, type=MECHANICAL
1.,1.
** 
** PREDEFINED FIELDS
** 
** Name: Predefined Field-1   Type: Temperature
*Initial Conditions, type=TEMPERATURE
Volume, 0.
** ----------------------------------------------------------------
** 
** STEP: Step-1
** 
*Step, name=Step-1, nlgeom=YES, inc=1000000
*Coupled Temperature-displacement, creep=none, deltmx=1e+20
0.01, 200., 1e-15, 1.
** 
** BOUNDARY CONDITIONS
** 
** Name: CL1 Type: Temperature
*Cflux
Flux_nodes, 11, 2e11
** Name: CL2 Type: Temperature
** 
** OUTPUT REQUESTS
** 
*Restart, write, frequency=0
** 
** FIELD OUTPUT: F-Output-1
** 
*Output, field
*Node Output
CF, NT, RF, RFL, U
*Element Output, directions=YES
HFL, IVOL, LE, PE, PEEQ, PEMAG, S, SDV
*Contact Output
CDISP, CSTRESS
** 
** HISTORY OUTPUT: H-Output-1
** 
*Output, history, variable=PRESELECT
*End Step
** ----------------------------------------------------------------
** 
** STEP: Step-2
** 
*Step, name=Step-2, nlgeom=YES, inc=1000000
*Coupled Temperature-displacement, creep=none, deltmx=1e+20
0.001, 800., 1e-15, 1.
** 
** BOUNDARY CONDITIONS
** 
** Name: CL1 Type: Temperature
*Cflux, op=NEW
Flux_nodes, 11, 0.
** 
** OUTPUT REQUESTS
** 
*Restart, write, frequency=0
** 
** FIELD OUTPUT: F-Output-1
** 
*Output, field
*Node Output
CF, NT, RF, RFL, U
*Element Output, directions=YES
HFL, IVOL, LE, PE, PEEQ, PEMAG, S, SDV
*Contact Output
CDISP, CSTRESS
** 
** HISTORY OUTPUT: H-Output-1
** 
*Output, history, variable=PRESELECT
*End Step
